LAMMPS (11 Aug 2017)
#hydrogen

variable        my_temp index 2000 5000 8000 12000 15000 20000 25000 30000 35000 40000 45000
variable        old_step equal 0
variable        Step equal step
variable        dumpstep equal 1000

label           loop
clear
variable        sname index hydrogen
units           electron
newton          on
boundary        p p p

atom_style      electron

read_data       data/T2000.lammps
  orthogonal box = (0 0 0) to (20.1478 20.1478 20.1478)
  reading atoms ...
  864 atoms
  reading velocities ...
  864 velocities
pair_style      eff/cut 20.15
pair_coeff      * *
timestep        0.002
neigh_modify    one 20000 page 200000

#comm_modify	  vel yes
group           at type 1
432 atoms in group at
group	        el type 2
432 atoms in group el
reset_timestep  0
thermo          1000

# dump            1 all cfg 10000 output/all/all.*.cfg mass type xs ys zs
# dump_modify     1 element C H

# dump            4  el cfg 10000 output/all/el.*.cfg mass type xs ys zs
# dump_modify     4 element C H

compute         1a all property/atom spin eradius ervel
compute     	peatom all pe/atom
compute		    keatom all ke/atom/eff
dump            2 all custom 1000 all/all.*.lammpstrj id type q c_1a[1] c_1a[2] x y z vx vy vz c_1a[3] c_peatom c_keatom

# compute       eff_energy components

compute         effTemp all temp/eff
compute         energies all pair eff/cut
variable        eke equal c_energies[1]
variable        epauli equal c_energies[2]
variable        ecoul equal c_energies[3]
variable        erres equal c_energies[4]

thermo_style    custom step pe temp press vol v_eke v_epauli v_ecoul v_erres lx
thermo_modify	temp effTemp

min_style       cg
min_modify      line quadratic
minimize        0 1.0e-2 1000 2000
  update every 1 steps, delay 0 steps, check yes
Step PotEng Temp Press Volume v_eke v_epauli v_ecoul v_erres Lx
0   -88.616249    1594.3676  5.44764e+11    8178.6764    187.30489    143.27016    -419.1913            0    20.147802
Loop time of 44.7524 on 16 procs for 1000 steps with 864 atoms

Minimization stats:
  Stopping criterion = max iterations
  Energy initial, next-to-last, final =
  Force two-norm initial, final = 12.7007 0.0138115
  Force max component initial, final = 1.05011 0.00251957
  Final line search alpha, max atom move = 1 0.00251957
  Iterations, force evaluations = 1000 1393

fix             1 all nve/eff
run             500000
Step PotEng Temp Press Volume v_eke v_epauli v_ecoul v_erres Lx
1000   -201.99873    1594.3676 7.4377905e+10    8178.6764     250.9601    5.8556582   -458.81449            0    20.147802
Averages over the last 23 of 45 rows, steps 23000 to 45000:
PotEng Temp Press Volume v_eke v_epauli v_ecoul v_erres Lx
-200.225 727.852 7.7614e+10 8178.68 254.849 6.46121 -461.535 0 20.1478
