LAMMPS (11 Aug 2017)
#hydrogen

variable        sname index hydrogen
units           electron
newton          on
boundary        p p p

atom_style      electron

read_data  	    432_20.11_0.30/data.lammps
  orthogonal box = (0 0 0) to (20.1079 20.1079 20.1079)
  reading atoms ...
  864 atoms

pair_style      eff/cut 20.15
pair_coeff      * *
timestep        0.005
neigh_modify	  one 20000 page 200000

#comm_modify	  vel yes
group           at type 1
432 atoms in group at
group		        el type 2
432 atoms in group el

thermo          100

# dump            1 all cfg 10000 output/all/all.*.cfg mass type xs ys zs
# dump_modify     1 element C H

# dump            4  el cfg 10000 output/all/el.*.cfg mass type xs ys zs
# dump_modify     4 element C H

compute         1a all property/atom spin eradius ervel
dump            2 all custom 1000 output/all/all.*.lammpstrj id type q c_1a[1] c_1a[2] x y z vx vy vz c_1a[3]

fix		          1 all nve/eff
# fix             2 all nvt/eff temp 40000.0 40000.0 100.0
fix 		        2 all temp/rescale/eff 100 40000 40000 0.02 1.0

# compute       eff_energy components

compute         effTemp all temp/eff
compute         energies all pair eff/cut
variable        eke equal c_energies[1]
variable        epauli equal c_energies[2]
variable        ecoul equal c_energies[3]
variable        erres equal c_energies[4]

thermo_style    custom step pe temp press vol v_eke v_epauli v_ecoul v_erres lx
thermo_modify	temp effTemp

dump            3 all xyz 1000 hydrogen.xyz

run		          50000
  update every 1 steps, delay 10 steps, check yes
Step PotEng Temp Press Volume v_eke v_epauli v_ecoul v_erres Lx
0   -158.20955            0 2.5440749e+11     8130.141    194.86291    45.854649    -398.9271            0    20.107868
Averages over the last 251 of 501 rows, steps 25000 to 50000:
PotEng Temp Press Volume v_eke v_epauli v_ecoul v_erres Lx
-98.5718 40000 4.3283e+11 8130.14 187 80.2927 -365.865 0 20.1079
Loop time of 2001.69 on 6 procs for 50000 steps with 864 atoms

unfix           2

run             100000
Step PotEng Temp Press Volume v_eke v_epauli v_ecoul v_erres Lx
50000   -99.286505        40000 4.3859766e+11     8130.141    187.03392    80.931187   -367.25161            0    20.107868
Averages over the last 501 of 1001 rows, steps 100000 to 150000:
PotEng Temp Press Volume v_eke v_epauli v_ecoul v_erres Lx
-98.4757 39604 4.3165e+11 8130.14 186.585 80.5373 -365.598 0 20.1079
Loop time of 4009.75 on 6 procs for 100000 steps with 864 atoms

write_data      h_03_40K_826N_diff_mass.data

Please see the log.cite file for references relevant to this simulation
